// Generated for: spectre
// Generated on: Nov 10 09:58:45 2010
// Design library name: memr
// Design cell name: array16r_3
// Design view name: schematic
simulator lang=spectre
global 0
parameters Cr=50m Rmin=8M Rmax=100M vrr=0
statistics {
mismatch{
vary vrr dist=gauss std=1
}
}

inline subckt MULT v1 v2 out
R1 v1 0  resistor r=1000G
R2 v2 0  resistor r=1000G
E1 ( out 0  v1 0 v2 0 ) pvcvs coeffs=[0 0 0 0 1 ]
ends MULT

subckt vrand2 vrand
V0 (net015 0) vsource dc=-10 type=dc
V1 (vrand net015) vsource dc=vrr*0.375 type=dc
ends vrand2

// Library name: memr
// Cell name: inh_mtrx_16x16_ok
// View name: schematic
subckt inh_mtrx_16x16_ok inh_1 inh_2 inh_3 inh_4 inh_5 inh_6 inh_7 inh_8 \
        inh_9 inh_10 inh_11 inh_12 inh_13 inh_14 inh_15 inh_16 vin_1 vin_2 \
        vin_3 vin_4 vin_5 vin_6 vin_7 vin_8 vin_9 vin_10 vin_11 vin_12 \
        vin_13 vin_14 vin_15 vin_16
parameters Rinh
    R255_1 (V_15 inh_16) resistor r=Rinh
    R255_2 (V_15 inh_16) resistor r=Rinh
    R255_3 (V_15 inh_16) resistor r=Rinh
    R255_4 (V_15 inh_16) resistor r=Rinh
    R255_5 (V_15 inh_16) resistor r=Rinh
    R255_6 (V_15 inh_16) resistor r=Rinh
    R255_7 (V_15 inh_16) resistor r=Rinh
    R255_8 (V_15 inh_16) resistor r=Rinh
    R255_9 (V_15 inh_16) resistor r=Rinh
    R255_10 (V_15 inh_16) resistor r=Rinh
    R255_11 (V_15 inh_16) resistor r=Rinh
    R255_12 (V_15 inh_16) resistor r=Rinh
    R255_13 (V_15 inh_16) resistor r=Rinh
    R255_14 (V_15 inh_16) resistor r=Rinh
    R255_15 (V_15 inh_16) resistor r=Rinh
    R255_16 (V_15 inh_16) resistor r=Rinh
    R254_1 (V_14 inh_16) resistor r=Rinh
    R254_2 (V_14 inh_16) resistor r=Rinh
    R254_3 (V_14 inh_16) resistor r=Rinh
    R254_4 (V_14 inh_16) resistor r=Rinh
    R254_5 (V_14 inh_16) resistor r=Rinh
    R254_6 (V_14 inh_16) resistor r=Rinh
    R254_7 (V_14 inh_16) resistor r=Rinh
    R254_8 (V_14 inh_16) resistor r=Rinh
    R254_9 (V_14 inh_16) resistor r=Rinh
    R254_10 (V_14 inh_16) resistor r=Rinh
    R254_11 (V_14 inh_16) resistor r=Rinh
    R254_12 (V_14 inh_16) resistor r=Rinh
    R254_13 (V_14 inh_16) resistor r=Rinh
    R254_14 (V_14 inh_16) resistor r=Rinh
    R254_15 (V_14 inh_16) resistor r=Rinh
    R254_16 (V_14 inh_16) resistor r=Rinh
    R253_1 (V_13 inh_16) resistor r=Rinh
    R253_2 (V_13 inh_16) resistor r=Rinh
    R253_3 (V_13 inh_16) resistor r=Rinh
    R253_4 (V_13 inh_16) resistor r=Rinh
    R253_5 (V_13 inh_16) resistor r=Rinh
    R253_6 (V_13 inh_16) resistor r=Rinh
    R253_7 (V_13 inh_16) resistor r=Rinh
    R253_8 (V_13 inh_16) resistor r=Rinh
    R253_9 (V_13 inh_16) resistor r=Rinh
    R253_10 (V_13 inh_16) resistor r=Rinh
    R253_11 (V_13 inh_16) resistor r=Rinh
    R253_12 (V_13 inh_16) resistor r=Rinh
    R253_13 (V_13 inh_16) resistor r=Rinh
    R253_14 (V_13 inh_16) resistor r=Rinh
    R253_15 (V_13 inh_16) resistor r=Rinh
    R253_16 (V_13 inh_16) resistor r=Rinh
    R252_1 (V_12 inh_16) resistor r=Rinh
    R252_2 (V_12 inh_16) resistor r=Rinh
    R252_3 (V_12 inh_16) resistor r=Rinh
    R252_4 (V_12 inh_16) resistor r=Rinh
    R252_5 (V_12 inh_16) resistor r=Rinh
    R252_6 (V_12 inh_16) resistor r=Rinh
    R252_7 (V_12 inh_16) resistor r=Rinh
    R252_8 (V_12 inh_16) resistor r=Rinh
    R252_9 (V_12 inh_16) resistor r=Rinh
    R252_10 (V_12 inh_16) resistor r=Rinh
    R252_11 (V_12 inh_16) resistor r=Rinh
    R252_12 (V_12 inh_16) resistor r=Rinh
    R252_13 (V_12 inh_16) resistor r=Rinh
    R252_14 (V_12 inh_16) resistor r=Rinh
    R252_15 (V_12 inh_16) resistor r=Rinh
    R252_16 (V_12 inh_16) resistor r=Rinh
    R251_1 (V_11 inh_16) resistor r=Rinh
    R251_2 (V_11 inh_16) resistor r=Rinh
    R251_3 (V_11 inh_16) resistor r=Rinh
    R251_4 (V_11 inh_16) resistor r=Rinh
    R251_5 (V_11 inh_16) resistor r=Rinh
    R251_6 (V_11 inh_16) resistor r=Rinh
    R251_7 (V_11 inh_16) resistor r=Rinh
    R251_8 (V_11 inh_16) resistor r=Rinh
    R251_9 (V_11 inh_16) resistor r=Rinh
    R251_10 (V_11 inh_16) resistor r=Rinh
    R251_11 (V_11 inh_16) resistor r=Rinh
    R251_12 (V_11 inh_16) resistor r=Rinh
    R251_13 (V_11 inh_16) resistor r=Rinh
    R251_14 (V_11 inh_16) resistor r=Rinh
    R251_15 (V_11 inh_16) resistor r=Rinh
    R251_16 (V_11 inh_16) resistor r=Rinh
    R250_1 (V_10 inh_16) resistor r=Rinh
    R250_2 (V_10 inh_16) resistor r=Rinh
    R250_3 (V_10 inh_16) resistor r=Rinh
    R250_4 (V_10 inh_16) resistor r=Rinh
    R250_5 (V_10 inh_16) resistor r=Rinh
    R250_6 (V_10 inh_16) resistor r=Rinh
    R250_7 (V_10 inh_16) resistor r=Rinh
    R250_8 (V_10 inh_16) resistor r=Rinh
    R250_9 (V_10 inh_16) resistor r=Rinh
    R250_10 (V_10 inh_16) resistor r=Rinh
    R250_11 (V_10 inh_16) resistor r=Rinh
    R250_12 (V_10 inh_16) resistor r=Rinh
    R250_13 (V_10 inh_16) resistor r=Rinh
    R250_14 (V_10 inh_16) resistor r=Rinh
    R250_15 (V_10 inh_16) resistor r=Rinh
    R250_16 (V_10 inh_16) resistor r=Rinh
    R249_1 (V_9 inh_16) resistor r=Rinh
    R249_2 (V_9 inh_16) resistor r=Rinh
    R249_3 (V_9 inh_16) resistor r=Rinh
    R249_4 (V_9 inh_16) resistor r=Rinh
    R249_5 (V_9 inh_16) resistor r=Rinh
    R249_6 (V_9 inh_16) resistor r=Rinh
    R249_7 (V_9 inh_16) resistor r=Rinh
    R249_8 (V_9 inh_16) resistor r=Rinh
    R249_9 (V_9 inh_16) resistor r=Rinh
    R249_10 (V_9 inh_16) resistor r=Rinh
    R249_11 (V_9 inh_16) resistor r=Rinh
    R249_12 (V_9 inh_16) resistor r=Rinh
    R249_13 (V_9 inh_16) resistor r=Rinh
    R249_14 (V_9 inh_16) resistor r=Rinh
    R249_15 (V_9 inh_16) resistor r=Rinh
    R249_16 (V_9 inh_16) resistor r=Rinh
    R248_1 (V_8 inh_16) resistor r=Rinh
    R248_2 (V_8 inh_16) resistor r=Rinh
    R248_3 (V_8 inh_16) resistor r=Rinh
    R248_4 (V_8 inh_16) resistor r=Rinh
    R248_5 (V_8 inh_16) resistor r=Rinh
    R248_6 (V_8 inh_16) resistor r=Rinh
    R248_7 (V_8 inh_16) resistor r=Rinh
    R248_8 (V_8 inh_16) resistor r=Rinh
    R248_9 (V_8 inh_16) resistor r=Rinh
    R248_10 (V_8 inh_16) resistor r=Rinh
    R248_11 (V_8 inh_16) resistor r=Rinh
    R248_12 (V_8 inh_16) resistor r=Rinh
    R248_13 (V_8 inh_16) resistor r=Rinh
    R248_14 (V_8 inh_16) resistor r=Rinh
    R248_15 (V_8 inh_16) resistor r=Rinh
    R248_16 (V_8 inh_16) resistor r=Rinh
    R247_1 (V_7 inh_16) resistor r=Rinh
    R247_2 (V_7 inh_16) resistor r=Rinh
    R247_3 (V_7 inh_16) resistor r=Rinh
    R247_4 (V_7 inh_16) resistor r=Rinh
    R247_5 (V_7 inh_16) resistor r=Rinh
    R247_6 (V_7 inh_16) resistor r=Rinh
    R247_7 (V_7 inh_16) resistor r=Rinh
    R247_8 (V_7 inh_16) resistor r=Rinh
    R247_9 (V_7 inh_16) resistor r=Rinh
    R247_10 (V_7 inh_16) resistor r=Rinh
    R247_11 (V_7 inh_16) resistor r=Rinh
    R247_12 (V_7 inh_16) resistor r=Rinh
    R247_13 (V_7 inh_16) resistor r=Rinh
    R247_14 (V_7 inh_16) resistor r=Rinh
    R247_15 (V_7 inh_16) resistor r=Rinh
    R247_16 (V_7 inh_16) resistor r=Rinh
    R246_1 (V_6 inh_16) resistor r=Rinh
    R246_2 (V_6 inh_16) resistor r=Rinh
    R246_3 (V_6 inh_16) resistor r=Rinh
    R246_4 (V_6 inh_16) resistor r=Rinh
    R246_5 (V_6 inh_16) resistor r=Rinh
    R246_6 (V_6 inh_16) resistor r=Rinh
    R246_7 (V_6 inh_16) resistor r=Rinh
    R246_8 (V_6 inh_16) resistor r=Rinh
    R246_9 (V_6 inh_16) resistor r=Rinh
    R246_10 (V_6 inh_16) resistor r=Rinh
    R246_11 (V_6 inh_16) resistor r=Rinh
    R246_12 (V_6 inh_16) resistor r=Rinh
    R246_13 (V_6 inh_16) resistor r=Rinh
    R246_14 (V_6 inh_16) resistor r=Rinh
    R246_15 (V_6 inh_16) resistor r=Rinh
    R246_16 (V_6 inh_16) resistor r=Rinh
    R245_1 (V_5 inh_16) resistor r=Rinh
    R245_2 (V_5 inh_16) resistor r=Rinh
    R245_3 (V_5 inh_16) resistor r=Rinh
    R245_4 (V_5 inh_16) resistor r=Rinh
    R245_5 (V_5 inh_16) resistor r=Rinh
    R245_6 (V_5 inh_16) resistor r=Rinh
    R245_7 (V_5 inh_16) resistor r=Rinh
    R245_8 (V_5 inh_16) resistor r=Rinh
    R245_9 (V_5 inh_16) resistor r=Rinh
    R245_10 (V_5 inh_16) resistor r=Rinh
    R245_11 (V_5 inh_16) resistor r=Rinh
    R245_12 (V_5 inh_16) resistor r=Rinh
    R245_13 (V_5 inh_16) resistor r=Rinh
    R245_14 (V_5 inh_16) resistor r=Rinh
    R245_15 (V_5 inh_16) resistor r=Rinh
    R245_16 (V_5 inh_16) resistor r=Rinh
    R244_1 (V_4 inh_16) resistor r=Rinh
    R244_2 (V_4 inh_16) resistor r=Rinh
    R244_3 (V_4 inh_16) resistor r=Rinh
    R244_4 (V_4 inh_16) resistor r=Rinh
    R244_5 (V_4 inh_16) resistor r=Rinh
    R244_6 (V_4 inh_16) resistor r=Rinh
    R244_7 (V_4 inh_16) resistor r=Rinh
    R244_8 (V_4 inh_16) resistor r=Rinh
    R244_9 (V_4 inh_16) resistor r=Rinh
    R244_10 (V_4 inh_16) resistor r=Rinh
    R244_11 (V_4 inh_16) resistor r=Rinh
    R244_12 (V_4 inh_16) resistor r=Rinh
    R244_13 (V_4 inh_16) resistor r=Rinh
    R244_14 (V_4 inh_16) resistor r=Rinh
    R244_15 (V_4 inh_16) resistor r=Rinh
    R244_16 (V_4 inh_16) resistor r=Rinh
    R243_1 (V_3 inh_16) resistor r=Rinh
    R243_2 (V_3 inh_16) resistor r=Rinh
    R243_3 (V_3 inh_16) resistor r=Rinh
    R243_4 (V_3 inh_16) resistor r=Rinh
    R243_5 (V_3 inh_16) resistor r=Rinh
    R243_6 (V_3 inh_16) resistor r=Rinh
    R243_7 (V_3 inh_16) resistor r=Rinh
    R243_8 (V_3 inh_16) resistor r=Rinh
    R243_9 (V_3 inh_16) resistor r=Rinh
    R243_10 (V_3 inh_16) resistor r=Rinh
    R243_11 (V_3 inh_16) resistor r=Rinh
    R243_12 (V_3 inh_16) resistor r=Rinh
    R243_13 (V_3 inh_16) resistor r=Rinh
    R243_14 (V_3 inh_16) resistor r=Rinh
    R243_15 (V_3 inh_16) resistor r=Rinh
    R243_16 (V_3 inh_16) resistor r=Rinh
    R242_1 (V_2 inh_16) resistor r=Rinh
    R242_2 (V_2 inh_16) resistor r=Rinh
    R242_3 (V_2 inh_16) resistor r=Rinh
    R242_4 (V_2 inh_16) resistor r=Rinh
    R242_5 (V_2 inh_16) resistor r=Rinh
    R242_6 (V_2 inh_16) resistor r=Rinh
    R242_7 (V_2 inh_16) resistor r=Rinh
    R242_8 (V_2 inh_16) resistor r=Rinh
    R242_9 (V_2 inh_16) resistor r=Rinh
    R242_10 (V_2 inh_16) resistor r=Rinh
    R242_11 (V_2 inh_16) resistor r=Rinh
    R242_12 (V_2 inh_16) resistor r=Rinh
    R242_13 (V_2 inh_16) resistor r=Rinh
    R242_14 (V_2 inh_16) resistor r=Rinh
    R242_15 (V_2 inh_16) resistor r=Rinh
    R242_16 (V_2 inh_16) resistor r=Rinh
    R241_1 (V_1 inh_16) resistor r=Rinh
    R241_2 (V_1 inh_16) resistor r=Rinh
    R241_3 (V_1 inh_16) resistor r=Rinh
    R241_4 (V_1 inh_16) resistor r=Rinh
    R241_5 (V_1 inh_16) resistor r=Rinh
    R241_6 (V_1 inh_16) resistor r=Rinh
    R241_7 (V_1 inh_16) resistor r=Rinh
    R241_8 (V_1 inh_16) resistor r=Rinh
    R241_9 (V_1 inh_16) resistor r=Rinh
    R241_10 (V_1 inh_16) resistor r=Rinh
    R241_11 (V_1 inh_16) resistor r=Rinh
    R241_12 (V_1 inh_16) resistor r=Rinh
    R241_13 (V_1 inh_16) resistor r=Rinh
    R241_14 (V_1 inh_16) resistor r=Rinh
    R241_15 (V_1 inh_16) resistor r=Rinh
    R241_16 (V_1 inh_16) resistor r=Rinh
    R240_1 (V_16 inh_15) resistor r=Rinh
    R240_2 (V_16 inh_15) resistor r=Rinh
    R240_3 (V_16 inh_15) resistor r=Rinh
    R240_4 (V_16 inh_15) resistor r=Rinh
    R240_5 (V_16 inh_15) resistor r=Rinh
    R240_6 (V_16 inh_15) resistor r=Rinh
    R240_7 (V_16 inh_15) resistor r=Rinh
    R240_8 (V_16 inh_15) resistor r=Rinh
    R240_9 (V_16 inh_15) resistor r=Rinh
    R240_10 (V_16 inh_15) resistor r=Rinh
    R240_11 (V_16 inh_15) resistor r=Rinh
    R240_12 (V_16 inh_15) resistor r=Rinh
    R240_13 (V_16 inh_15) resistor r=Rinh
    R240_14 (V_16 inh_15) resistor r=Rinh
    R240_15 (V_16 inh_15) resistor r=Rinh
    R240_16 (V_16 inh_15) resistor r=Rinh
    R238_1 (V_14 inh_15) resistor r=Rinh
    R238_2 (V_14 inh_15) resistor r=Rinh
    R238_3 (V_14 inh_15) resistor r=Rinh
    R238_4 (V_14 inh_15) resistor r=Rinh
    R238_5 (V_14 inh_15) resistor r=Rinh
    R238_6 (V_14 inh_15) resistor r=Rinh
    R238_7 (V_14 inh_15) resistor r=Rinh
    R238_8 (V_14 inh_15) resistor r=Rinh
    R238_9 (V_14 inh_15) resistor r=Rinh
    R238_10 (V_14 inh_15) resistor r=Rinh
    R238_11 (V_14 inh_15) resistor r=Rinh
    R238_12 (V_14 inh_15) resistor r=Rinh
    R238_13 (V_14 inh_15) resistor r=Rinh
    R238_14 (V_14 inh_15) resistor r=Rinh
    R238_15 (V_14 inh_15) resistor r=Rinh
    R238_16 (V_14 inh_15) resistor r=Rinh
    R237_1 (V_13 inh_15) resistor r=Rinh
    R237_2 (V_13 inh_15) resistor r=Rinh
    R237_3 (V_13 inh_15) resistor r=Rinh
    R237_4 (V_13 inh_15) resistor r=Rinh
    R237_5 (V_13 inh_15) resistor r=Rinh
    R237_6 (V_13 inh_15) resistor r=Rinh
    R237_7 (V_13 inh_15) resistor r=Rinh
    R237_8 (V_13 inh_15) resistor r=Rinh
    R237_9 (V_13 inh_15) resistor r=Rinh
    R237_10 (V_13 inh_15) resistor r=Rinh
    R237_11 (V_13 inh_15) resistor r=Rinh
    R237_12 (V_13 inh_15) resistor r=Rinh
    R237_13 (V_13 inh_15) resistor r=Rinh
    R237_14 (V_13 inh_15) resistor r=Rinh
    R237_15 (V_13 inh_15) resistor r=Rinh
    R237_16 (V_13 inh_15) resistor r=Rinh
    R236_1 (V_12 inh_15) resistor r=Rinh
    R236_2 (V_12 inh_15) resistor r=Rinh
    R236_3 (V_12 inh_15) resistor r=Rinh
    R236_4 (V_12 inh_15) resistor r=Rinh
    R236_5 (V_12 inh_15) resistor r=Rinh
    R236_6 (V_12 inh_15) resistor r=Rinh
    R236_7 (V_12 inh_15) resistor r=Rinh
    R236_8 (V_12 inh_15) resistor r=Rinh
    R236_9 (V_12 inh_15) resistor r=Rinh
    R236_10 (V_12 inh_15) resistor r=Rinh
    R236_11 (V_12 inh_15) resistor r=Rinh
    R236_12 (V_12 inh_15) resistor r=Rinh
    R236_13 (V_12 inh_15) resistor r=Rinh
    R236_14 (V_12 inh_15) resistor r=Rinh
    R236_15 (V_12 inh_15) resistor r=Rinh
    R236_16 (V_12 inh_15) resistor r=Rinh
    R235_1 (V_11 inh_15) resistor r=Rinh
    R235_2 (V_11 inh_15) resistor r=Rinh
    R235_3 (V_11 inh_15) resistor r=Rinh
    R235_4 (V_11 inh_15) resistor r=Rinh
    R235_5 (V_11 inh_15) resistor r=Rinh
    R235_6 (V_11 inh_15) resistor r=Rinh
    R235_7 (V_11 inh_15) resistor r=Rinh
    R235_8 (V_11 inh_15) resistor r=Rinh
    R235_9 (V_11 inh_15) resistor r=Rinh
    R235_10 (V_11 inh_15) resistor r=Rinh
    R235_11 (V_11 inh_15) resistor r=Rinh
    R235_12 (V_11 inh_15) resistor r=Rinh
    R235_13 (V_11 inh_15) resistor r=Rinh
    R235_14 (V_11 inh_15) resistor r=Rinh
    R235_15 (V_11 inh_15) resistor r=Rinh
    R235_16 (V_11 inh_15) resistor r=Rinh
    R234_1 (V_10 inh_15) resistor r=Rinh
    R234_2 (V_10 inh_15) resistor r=Rinh
    R234_3 (V_10 inh_15) resistor r=Rinh
    R234_4 (V_10 inh_15) resistor r=Rinh
    R234_5 (V_10 inh_15) resistor r=Rinh
    R234_6 (V_10 inh_15) resistor r=Rinh
    R234_7 (V_10 inh_15) resistor r=Rinh
    R234_8 (V_10 inh_15) resistor r=Rinh
    R234_9 (V_10 inh_15) resistor r=Rinh
    R234_10 (V_10 inh_15) resistor r=Rinh
    R234_11 (V_10 inh_15) resistor r=Rinh
    R234_12 (V_10 inh_15) resistor r=Rinh
    R234_13 (V_10 inh_15) resistor r=Rinh
    R234_14 (V_10 inh_15) resistor r=Rinh
    R234_15 (V_10 inh_15) resistor r=Rinh
    R234_16 (V_10 inh_15) resistor r=Rinh
    R233_1 (V_9 inh_15) resistor r=Rinh
    R233_2 (V_9 inh_15) resistor r=Rinh
    R233_3 (V_9 inh_15) resistor r=Rinh
    R233_4 (V_9 inh_15) resistor r=Rinh
    R233_5 (V_9 inh_15) resistor r=Rinh
    R233_6 (V_9 inh_15) resistor r=Rinh
    R233_7 (V_9 inh_15) resistor r=Rinh
    R233_8 (V_9 inh_15) resistor r=Rinh
    R233_9 (V_9 inh_15) resistor r=Rinh
    R233_10 (V_9 inh_15) resistor r=Rinh
    R233_11 (V_9 inh_15) resistor r=Rinh
    R233_12 (V_9 inh_15) resistor r=Rinh
    R233_13 (V_9 inh_15) resistor r=Rinh
    R233_14 (V_9 inh_15) resistor r=Rinh
    R233_15 (V_9 inh_15) resistor r=Rinh
    R233_16 (V_9 inh_15) resistor r=Rinh
    R232_1 (V_8 inh_15) resistor r=Rinh
    R232_2 (V_8 inh_15) resistor r=Rinh
    R232_3 (V_8 inh_15) resistor r=Rinh
    R232_4 (V_8 inh_15) resistor r=Rinh
    R232_5 (V_8 inh_15) resistor r=Rinh
    R232_6 (V_8 inh_15) resistor r=Rinh
    R232_7 (V_8 inh_15) resistor r=Rinh
    R232_8 (V_8 inh_15) resistor r=Rinh
    R232_9 (V_8 inh_15) resistor r=Rinh
    R232_10 (V_8 inh_15) resistor r=Rinh
    R232_11 (V_8 inh_15) resistor r=Rinh
    R232_12 (V_8 inh_15) resistor r=Rinh
    R232_13 (V_8 inh_15) resistor r=Rinh
    R232_14 (V_8 inh_15) resistor r=Rinh
    R232_15 (V_8 inh_15) resistor r=Rinh
    R232_16 (V_8 inh_15) resistor r=Rinh
    R231_1 (V_7 inh_15) resistor r=Rinh
    R231_2 (V_7 inh_15) resistor r=Rinh
    R231_3 (V_7 inh_15) resistor r=Rinh
    R231_4 (V_7 inh_15) resistor r=Rinh
    R231_5 (V_7 inh_15) resistor r=Rinh
    R231_6 (V_7 inh_15) resistor r=Rinh
    R231_7 (V_7 inh_15) resistor r=Rinh
    R231_8 (V_7 inh_15) resistor r=Rinh
    R231_9 (V_7 inh_15) resistor r=Rinh
    R231_10 (V_7 inh_15) resistor r=Rinh
    R231_11 (V_7 inh_15) resistor r=Rinh
    R231_12 (V_7 inh_15) resistor r=Rinh
    R231_13 (V_7 inh_15) resistor r=Rinh
    R231_14 (V_7 inh_15) resistor r=Rinh
    R231_15 (V_7 inh_15) resistor r=Rinh
    R231_16 (V_7 inh_15) resistor r=Rinh
    R230_1 (V_6 inh_15) resistor r=Rinh
    R230_2 (V_6 inh_15) resistor r=Rinh
    R230_3 (V_6 inh_15) resistor r=Rinh
    R230_4 (V_6 inh_15) resistor r=Rinh
    R230_5 (V_6 inh_15) resistor r=Rinh
    R230_6 (V_6 inh_15) resistor r=Rinh
    R230_7 (V_6 inh_15) resistor r=Rinh
    R230_8 (V_6 inh_15) resistor r=Rinh
    R230_9 (V_6 inh_15) resistor r=Rinh
    R230_10 (V_6 inh_15) resistor r=Rinh
    R230_11 (V_6 inh_15) resistor r=Rinh
    R230_12 (V_6 inh_15) resistor r=Rinh
    R230_13 (V_6 inh_15) resistor r=Rinh
    R230_14 (V_6 inh_15) resistor r=Rinh
    R230_15 (V_6 inh_15) resistor r=Rinh
    R230_16 (V_6 inh_15) resistor r=Rinh
    R229_1 (V_5 inh_15) resistor r=Rinh
    R229_2 (V_5 inh_15) resistor r=Rinh
    R229_3 (V_5 inh_15) resistor r=Rinh
    R229_4 (V_5 inh_15) resistor r=Rinh
    R229_5 (V_5 inh_15) resistor r=Rinh
    R229_6 (V_5 inh_15) resistor r=Rinh
    R229_7 (V_5 inh_15) resistor r=Rinh
    R229_8 (V_5 inh_15) resistor r=Rinh
    R229_9 (V_5 inh_15) resistor r=Rinh
    R229_10 (V_5 inh_15) resistor r=Rinh
    R229_11 (V_5 inh_15) resistor r=Rinh
    R229_12 (V_5 inh_15) resistor r=Rinh
    R229_13 (V_5 inh_15) resistor r=Rinh
    R229_14 (V_5 inh_15) resistor r=Rinh
    R229_15 (V_5 inh_15) resistor r=Rinh
    R229_16 (V_5 inh_15) resistor r=Rinh
    R228_1 (V_4 inh_15) resistor r=Rinh
    R228_2 (V_4 inh_15) resistor r=Rinh
    R228_3 (V_4 inh_15) resistor r=Rinh
    R228_4 (V_4 inh_15) resistor r=Rinh
    R228_5 (V_4 inh_15) resistor r=Rinh
    R228_6 (V_4 inh_15) resistor r=Rinh
    R228_7 (V_4 inh_15) resistor r=Rinh
    R228_8 (V_4 inh_15) resistor r=Rinh
    R228_9 (V_4 inh_15) resistor r=Rinh
    R228_10 (V_4 inh_15) resistor r=Rinh
    R228_11 (V_4 inh_15) resistor r=Rinh
    R228_12 (V_4 inh_15) resistor r=Rinh
    R228_13 (V_4 inh_15) resistor r=Rinh
    R228_14 (V_4 inh_15) resistor r=Rinh
    R228_15 (V_4 inh_15) resistor r=Rinh
    R228_16 (V_4 inh_15) resistor r=Rinh
    R227_1 (V_3 inh_15) resistor r=Rinh
    R227_2 (V_3 inh_15) resistor r=Rinh
    R227_3 (V_3 inh_15) resistor r=Rinh
    R227_4 (V_3 inh_15) resistor r=Rinh
    R227_5 (V_3 inh_15) resistor r=Rinh
    R227_6 (V_3 inh_15) resistor r=Rinh
    R227_7 (V_3 inh_15) resistor r=Rinh
    R227_8 (V_3 inh_15) resistor r=Rinh
    R227_9 (V_3 inh_15) resistor r=Rinh
    R227_10 (V_3 inh_15) resistor r=Rinh
    R227_11 (V_3 inh_15) resistor r=Rinh
    R227_12 (V_3 inh_15) resistor r=Rinh
    R227_13 (V_3 inh_15) resistor r=Rinh
    R227_14 (V_3 inh_15) resistor r=Rinh
    R227_15 (V_3 inh_15) resistor r=Rinh
    R227_16 (V_3 inh_15) resistor r=Rinh
    R226_1 (V_2 inh_15) resistor r=Rinh
    R226_2 (V_2 inh_15) resistor r=Rinh
    R226_3 (V_2 inh_15) resistor r=Rinh
    R226_4 (V_2 inh_15) resistor r=Rinh
    R226_5 (V_2 inh_15) resistor r=Rinh
    R226_6 (V_2 inh_15) resistor r=Rinh
    R226_7 (V_2 inh_15) resistor r=Rinh
    R226_8 (V_2 inh_15) resistor r=Rinh
    R226_9 (V_2 inh_15) resistor r=Rinh
    R226_10 (V_2 inh_15) resistor r=Rinh
    R226_11 (V_2 inh_15) resistor r=Rinh
    R226_12 (V_2 inh_15) resistor r=Rinh
    R226_13 (V_2 inh_15) resistor r=Rinh
    R226_14 (V_2 inh_15) resistor r=Rinh
    R226_15 (V_2 inh_15) resistor r=Rinh
    R226_16 (V_2 inh_15) resistor r=Rinh
    R225_1 (V_1 inh_15) resistor r=Rinh
    R225_2 (V_1 inh_15) resistor r=Rinh
    R225_3 (V_1 inh_15) resistor r=Rinh
    R225_4 (V_1 inh_15) resistor r=Rinh
    R225_5 (V_1 inh_15) resistor r=Rinh
    R225_6 (V_1 inh_15) resistor r=Rinh
    R225_7 (V_1 inh_15) resistor r=Rinh
    R225_8 (V_1 inh_15) resistor r=Rinh
    R225_9 (V_1 inh_15) resistor r=Rinh
    R225_10 (V_1 inh_15) resistor r=Rinh
    R225_11 (V_1 inh_15) resistor r=Rinh
    R225_12 (V_1 inh_15) resistor r=Rinh
    R225_13 (V_1 inh_15) resistor r=Rinh
    R225_14 (V_1 inh_15) resistor r=Rinh
    R225_15 (V_1 inh_15) resistor r=Rinh
    R225_16 (V_1 inh_15) resistor r=Rinh
    R224_1 (V_16 inh_14) resistor r=Rinh
    R224_2 (V_16 inh_14) resistor r=Rinh
    R224_3 (V_16 inh_14) resistor r=Rinh
    R224_4 (V_16 inh_14) resistor r=Rinh
    R224_5 (V_16 inh_14) resistor r=Rinh
    R224_6 (V_16 inh_14) resistor r=Rinh
    R224_7 (V_16 inh_14) resistor r=Rinh
    R224_8 (V_16 inh_14) resistor r=Rinh
    R224_9 (V_16 inh_14) resistor r=Rinh
    R224_10 (V_16 inh_14) resistor r=Rinh
    R224_11 (V_16 inh_14) resistor r=Rinh
    R224_12 (V_16 inh_14) resistor r=Rinh
    R224_13 (V_16 inh_14) resistor r=Rinh
    R224_14 (V_16 inh_14) resistor r=Rinh
    R224_15 (V_16 inh_14) resistor r=Rinh
    R224_16 (V_16 inh_14) resistor r=Rinh
    R223_1 (V_15 inh_14) resistor r=Rinh
    R223_2 (V_15 inh_14) resistor r=Rinh
    R223_3 (V_15 inh_14) resistor r=Rinh
    R223_4 (V_15 inh_14) resistor r=Rinh
    R223_5 (V_15 inh_14) resistor r=Rinh
    R223_6 (V_15 inh_14) resistor r=Rinh
    R223_7 (V_15 inh_14) resistor r=Rinh
    R223_8 (V_15 inh_14) resistor r=Rinh
    R223_9 (V_15 inh_14) resistor r=Rinh
    R223_10 (V_15 inh_14) resistor r=Rinh
    R223_11 (V_15 inh_14) resistor r=Rinh
    R223_12 (V_15 inh_14) resistor r=Rinh
    R223_13 (V_15 inh_14) resistor r=Rinh
    R223_14 (V_15 inh_14) resistor r=Rinh
    R223_15 (V_15 inh_14) resistor r=Rinh
    R223_16 (V_15 inh_14) resistor r=Rinh
    R221_1 (V_13 inh_14) resistor r=Rinh
    R221_2 (V_13 inh_14) resistor r=Rinh
    R221_3 (V_13 inh_14) resistor r=Rinh
    R221_4 (V_13 inh_14) resistor r=Rinh
    R221_5 (V_13 inh_14) resistor r=Rinh
    R221_6 (V_13 inh_14) resistor r=Rinh
    R221_7 (V_13 inh_14) resistor r=Rinh
    R221_8 (V_13 inh_14) resistor r=Rinh
    R221_9 (V_13 inh_14) resistor r=Rinh
    R221_10 (V_13 inh_14) resistor r=Rinh
    R221_11 (V_13 inh_14) resistor r=Rinh
    R221_12 (V_13 inh_14) resistor r=Rinh
    R221_13 (V_13 inh_14) resistor r=Rinh
    R221_14 (V_13 inh_14) resistor r=Rinh
    R221_15 (V_13 inh_14) resistor r=Rinh
    R221_16 (V_13 inh_14) resistor r=Rinh
    R220_1 (V_12 inh_14) resistor r=Rinh
    R220_2 (V_12 inh_14) resistor r=Rinh
    R220_3 (V_12 inh_14) resistor r=Rinh
    R220_4 (V_12 inh_14) resistor r=Rinh
    R220_5 (V_12 inh_14) resistor r=Rinh
    R220_6 (V_12 inh_14) resistor r=Rinh
    R220_7 (V_12 inh_14) resistor r=Rinh
    R220_8 (V_12 inh_14) resistor r=Rinh
    R220_9 (V_12 inh_14) resistor r=Rinh
    R220_10 (V_12 inh_14) resistor r=Rinh
    R220_11 (V_12 inh_14) resistor r=Rinh
    R220_12 (V_12 inh_14) resistor r=Rinh
    R220_13 (V_12 inh_14) resistor r=Rinh
    R220_14 (V_12 inh_14) resistor r=Rinh
    R220_15 (V_12 inh_14) resistor r=Rinh
    R220_16 (V_12 inh_14) resistor r=Rinh
    R219_1 (V_11 inh_14) resistor r=Rinh
    R219_2 (V_11 inh_14) resistor r=Rinh
    R219_3 (V_11 inh_14) resistor r=Rinh
    R219_4 (V_11 inh_14) resistor r=Rinh
    R219_5 (V_11 inh_14) resistor r=Rinh
    R219_6 (V_11 inh_14) resistor r=Rinh
    R219_7 (V_11 inh_14) resistor r=Rinh
    R219_8 (V_11 inh_14) resistor r=Rinh
    R219_9 (V_11 inh_14) resistor r=Rinh
    R219_10 (V_11 inh_14) resistor r=Rinh
    R219_11 (V_11 inh_14) resistor r=Rinh
    R219_12 (V_11 inh_14) resistor r=Rinh
    R219_13 (V_11 inh_14) resistor r=Rinh
    R219_14 (V_11 inh_14) resistor r=Rinh
    R219_15 (V_11 inh_14) resistor r=Rinh
    R219_16 (V_11 inh_14) resistor r=Rinh
    R218_1 (V_10 inh_14) resistor r=Rinh
    R218_2 (V_10 inh_14) resistor r=Rinh
    R218_3 (V_10 inh_14) resistor r=Rinh
    R218_4 (V_10 inh_14) resistor r=Rinh
    R218_5 (V_10 inh_14) resistor r=Rinh
    R218_6 (V_10 inh_14) resistor r=Rinh
    R218_7 (V_10 inh_14) resistor r=Rinh
    R218_8 (V_10 inh_14) resistor r=Rinh
    R218_9 (V_10 inh_14) resistor r=Rinh
    R218_10 (V_10 inh_14) resistor r=Rinh
    R218_11 (V_10 inh_14) resistor r=Rinh
    R218_12 (V_10 inh_14) resistor r=Rinh
    R218_13 (V_10 inh_14) resistor r=Rinh
    R218_14 (V_10 inh_14) resistor r=Rinh
    R218_15 (V_10 inh_14) resistor r=Rinh
    R218_16 (V_10 inh_14) resistor r=Rinh
    R217_1 (V_9 inh_14) resistor r=Rinh
    R217_2 (V_9 inh_14) resistor r=Rinh
    R217_3 (V_9 inh_14) resistor r=Rinh
    R217_4 (V_9 inh_14) resistor r=Rinh
    R217_5 (V_9 inh_14) resistor r=Rinh
    R217_6 (V_9 inh_14) resistor r=Rinh
    R217_7 (V_9 inh_14) resistor r=Rinh
    R217_8 (V_9 inh_14) resistor r=Rinh
    R217_9 (V_9 inh_14) resistor r=Rinh
    R217_10 (V_9 inh_14) resistor r=Rinh
    R217_11 (V_9 inh_14) resistor r=Rinh
    R217_12 (V_9 inh_14) resistor r=Rinh
    R217_13 (V_9 inh_14) resistor r=Rinh
    R217_14 (V_9 inh_14) resistor r=Rinh
    R217_15 (V_9 inh_14) resistor r=Rinh
    R217_16 (V_9 inh_14) resistor r=Rinh
    R216_1 (V_8 inh_14) resistor r=Rinh
    R216_2 (V_8 inh_14) resistor r=Rinh
    R216_3 (V_8 inh_14) resistor r=Rinh
    R216_4 (V_8 inh_14) resistor r=Rinh
    R216_5 (V_8 inh_14) resistor r=Rinh
    R216_6 (V_8 inh_14) resistor r=Rinh
    R216_7 (V_8 inh_14) resistor r=Rinh
    R216_8 (V_8 inh_14) resistor r=Rinh
    R216_9 (V_8 inh_14) resistor r=Rinh
    R216_10 (V_8 inh_14) resistor r=Rinh
    R216_11 (V_8 inh_14) resistor r=Rinh
    R216_12 (V_8 inh_14) resistor r=Rinh
    R216_13 (V_8 inh_14) resistor r=Rinh
    R216_14 (V_8 inh_14) resistor r=Rinh
    R216_15 (V_8 inh_14) resistor r=Rinh
    R216_16 (V_8 inh_14) resistor r=Rinh
    R215_1 (V_7 inh_14) resistor r=Rinh
    R215_2 (V_7 inh_14) resistor r=Rinh
    R215_3 (V_7 inh_14) resistor r=Rinh
    R215_4 (V_7 inh_14) resistor r=Rinh
    R215_5 (V_7 inh_14) resistor r=Rinh
    R215_6 (V_7 inh_14) resistor r=Rinh
    R215_7 (V_7 inh_14) resistor r=Rinh
    R215_8 (V_7 inh_14) resistor r=Rinh
    R215_9 (V_7 inh_14) resistor r=Rinh
    R215_10 (V_7 inh_14) resistor r=Rinh
    R215_11 (V_7 inh_14) resistor r=Rinh
    R215_12 (V_7 inh_14) resistor r=Rinh
    R215_13 (V_7 inh_14) resistor r=Rinh
    R215_14 (V_7 inh_14) resistor r=Rinh
    R215_15 (V_7 inh_14) resistor r=Rinh
    R215_16 (V_7 inh_14) resistor r=Rinh
    R214_1 (V_6 inh_14) resistor r=Rinh
    R214_2 (V_6 inh_14) resistor r=Rinh
    R214_3 (V_6 inh_14) resistor r=Rinh
    R214_4 (V_6 inh_14) resistor r=Rinh
    R214_5 (V_6 inh_14) resistor r=Rinh
    R214_6 (V_6 inh_14) resistor r=Rinh
    R214_7 (V_6 inh_14) resistor r=Rinh
    R214_8 (V_6 inh_14) resistor r=Rinh
    R214_9 (V_6 inh_14) resistor r=Rinh
    R214_10 (V_6 inh_14) resistor r=Rinh
    R214_11 (V_6 inh_14) resistor r=Rinh
    R214_12 (V_6 inh_14) resistor r=Rinh
    R214_13 (V_6 inh_14) resistor r=Rinh
    R214_14 (V_6 inh_14) resistor r=Rinh
    R214_15 (V_6 inh_14) resistor r=Rinh
    R214_16 (V_6 inh_14) resistor r=Rinh
    R213_1 (V_5 inh_14) resistor r=Rinh
    R213_2 (V_5 inh_14) resistor r=Rinh
    R213_3 (V_5 inh_14) resistor r=Rinh
    R213_4 (V_5 inh_14) resistor r=Rinh
    R213_5 (V_5 inh_14) resistor r=Rinh
    R213_6 (V_5 inh_14) resistor r=Rinh
    R213_7 (V_5 inh_14) resistor r=Rinh
    R213_8 (V_5 inh_14) resistor r=Rinh
    R213_9 (V_5 inh_14) resistor r=Rinh
    R213_10 (V_5 inh_14) resistor r=Rinh
    R213_11 (V_5 inh_14) resistor r=Rinh
    R213_12 (V_5 inh_14) resistor r=Rinh
    R213_13 (V_5 inh_14) resistor r=Rinh
    R213_14 (V_5 inh_14) resistor r=Rinh
    R213_15 (V_5 inh_14) resistor r=Rinh
    R213_16 (V_5 inh_14) resistor r=Rinh
    R212_1 (V_4 inh_14) resistor r=Rinh
    R212_2 (V_4 inh_14) resistor r=Rinh
    R212_3 (V_4 inh_14) resistor r=Rinh
    R212_4 (V_4 inh_14) resistor r=Rinh
    R212_5 (V_4 inh_14) resistor r=Rinh
    R212_6 (V_4 inh_14) resistor r=Rinh
    R212_7 (V_4 inh_14) resistor r=Rinh
    R212_8 (V_4 inh_14) resistor r=Rinh
    R212_9 (V_4 inh_14) resistor r=Rinh
    R212_10 (V_4 inh_14) resistor r=Rinh
    R212_11 (V_4 inh_14) resistor r=Rinh
    R212_12 (V_4 inh_14) resistor r=Rinh
    R212_13 (V_4 inh_14) resistor r=Rinh
    R212_14 (V_4 inh_14) resistor r=Rinh
    R212_15 (V_4 inh_14) resistor r=Rinh
    R212_16 (V_4 inh_14) resistor r=Rinh
    R211_1 (V_3 inh_14) resistor r=Rinh
    R211_2 (V_3 inh_14) resistor r=Rinh
    R211_3 (V_3 inh_14) resistor r=Rinh
    R211_4 (V_3 inh_14) resistor r=Rinh
    R211_5 (V_3 inh_14) resistor r=Rinh
    R211_6 (V_3 inh_14) resistor r=Rinh
    R211_7 (V_3 inh_14) resistor r=Rinh
    R211_8 (V_3 inh_14) resistor r=Rinh
    R211_9 (V_3 inh_14) resistor r=Rinh
    R211_10 (V_3 inh_14) resistor r=Rinh
    R211_11 (V_3 inh_14) resistor r=Rinh
    R211_12 (V_3 inh_14) resistor r=Rinh
    R211_13 (V_3 inh_14) resistor r=Rinh
    R211_14 (V_3 inh_14) resistor r=Rinh
    R211_15 (V_3 inh_14) resistor r=Rinh
    R211_16 (V_3 inh_14) resistor r=Rinh
    R210_1 (V_2 inh_14) resistor r=Rinh
    R210_2 (V_2 inh_14) resistor r=Rinh
    R210_3 (V_2 inh_14) resistor r=Rinh
    R210_4 (V_2 inh_14) resistor r=Rinh
    R210_5 (V_2 inh_14) resistor r=Rinh
    R210_6 (V_2 inh_14) resistor r=Rinh
    R210_7 (V_2 inh_14) resistor r=Rinh
    R210_8 (V_2 inh_14) resistor r=Rinh
    R210_9 (V_2 inh_14) resistor r=Rinh
    R210_10 (V_2 inh_14) resistor r=Rinh
    R210_11 (V_2 inh_14) resistor r=Rinh
    R210_12 (V_2 inh_14) resistor r=Rinh
    R210_13 (V_2 inh_14) resistor r=Rinh
    R210_14 (V_2 inh_14) resistor r=Rinh
    R210_15 (V_2 inh_14) resistor r=Rinh
    R210_16 (V_2 inh_14) resistor r=Rinh
    R209_1 (V_1 inh_14) resistor r=Rinh
    R209_2 (V_1 inh_14) resistor r=Rinh
    R209_3 (V_1 inh_14) resistor r=Rinh
    R209_4 (V_1 inh_14) resistor r=Rinh
    R209_5 (V_1 inh_14) resistor r=Rinh
    R209_6 (V_1 inh_14) resistor r=Rinh
    R209_7 (V_1 inh_14) resistor r=Rinh
    R209_8 (V_1 inh_14) resistor r=Rinh